src/test/resources/pst_special/process1/divacaOutage/20260620_1130_2D1_SI0.UCT
##C 2007.05.01
##N
##ZSI
LBERIC1  BERICEVO     0 0            0.0     5.1     0.9     9.8     2.1     9.5     0.8     5.9   0.7     8.0     1.5          
LDIVAC11 DIVACA       0 0            7.5     9.1     8.9     0.6     2.2     3.7     6.3     7.7   7.4     3.7     7.1          
LDIVAC12 LDIVAC12     0 0            0.6     8.4     4.6     9.3     3.5     0.0     4.6     1.1   5.8     4.3     4.2          
LDIVAC51 LDIVAC51     0 0           57.5     1.7     5.9     9.7     1.3     2.0     8.4     0.4   0.2     4.3     3.4         
##ZXX
XRE_DI11 REDIPUGLIA   0 2  264.9   -79.9  -719.5     4.7     8.8     9.8     3.7   753.4  -700.5   9.9     5.3     3.2         
XME_DI11 MELINA       0 2  740.3   992.0   -95.3     5.7     0.1     9.7     6.8     4.2     1.8   1.3     5.6     1.0         
##L
LDIVAC12 XRE_DI11 1 0  4.134  6.408   66.442   2700 XXXXXXXXXXXX
LDIVAC11 XME_DI11 1 0   2.84 64.615   305.99   1920 XXXXXXXXXXXX
LDIVAC11 LBERIC1  1 0  9.060 25.874   875.71   1920 XXXXXXXXXXXX
LDIVAC12 LDIVAC11 2 7   0.53   1.22      1.4   9999 XXXXXXXXXXXX
##T
LDIVAC11 LDIVAC12 1 8 717.7 005.3  1200   0.58 33.052   -5.064  5.105   1732 XXXXXXXXXXXX
LDIVAC51 LDIVAC11 1 0 742.1 017.7   300 0.7420  3.928 -004.080 04.603   1506 XXXXXXXXXXXX
##R
LDIVAC11 LDIVAC12 1     0  0   0     0  0.14    90 32   0       SYMM
LDIVAC51 LDIVAC11 1   3.6 12  -1     0                          
